Circuit: * C:\Users\ukjkin\Documents\GitHub\LTspice_PWM_Source\PWM_example_usage.asc

WARNING: Less than two connections to node MY_PWM1.  This node is used by A:X1:1.
WARNING: Less than two connections to node MY_PWM2.  This node is used by A:X2:1.
WARNING: Less than two connections to node MY_PWM3.  This node is used by A:X3:1.
Direct Newton iteration for .op point succeeded.

Date: Wed Jun 16 17:49:56 2021
Total elapsed time: 0.052 seconds.

tnom = 27
temp = 27
method = modified trap
totiter = 4009
traniter = 4006
tranpoints = 1929
accept = 1705
rejected = 224
matrix size = 9
fillins = 0
solver = Normal
Matrix Compiler1: 170 bytes object code size  0.1/0.0/[0.0]
Matrix Compiler2: off  [0.0]/0.1/0.0

